18
0 1 C8H10
C                     4.082578443555    -0.414149337797     0.308801043095
C                     2.772619443555    -0.539562337797     0.550987043095
C                     1.758915443555     0.109690662203    -0.247635956905
C                     0.445495443555    -0.018072337797    -0.002136956905
C                    -0.566742556445     0.634679662203    -0.805468956905
C                    -1.899165556445     0.574142662203    -0.647681956905
C                    -2.632354556445    -0.156729337797     0.360789043095
C                    -3.969116556445    -0.151026337797     0.431307043095
H                     4.809225443555    -0.921044337797     0.936106043095
H                     4.465138443555     0.188007662203    -0.509128956905
H                     2.446439443555    -1.156834337797     1.385595043095
H                     2.102098443555     0.723183662203    -1.078239956905
H                     0.116483443555    -0.633321337797     0.829961043095
H                    -0.196270556445     1.242940662203    -1.630759956905
H                    -2.505345556445     1.137842662203    -1.357076956905
H                    -2.079204556445    -0.736111337797     1.093992043095
H                    -4.584754556445     0.405504662203    -0.268050956905
H                    -4.481288556445    -0.714216337797     1.205323043095
